<?xml version="1.0" encoding="UTF-8"?>

<!-- generated on 2024-01-21 12:39:50 by Eclipse SUMO netedit Version 1.18.0
<configuration xmlns:xsi="http://www.w3.org/2001/XMLSchema-instance" xsi:noNamespaceSchemaLocation="http://sumo.dlr.de/xsd/neteditConfiguration.xsd">

    <input>
        <sumocfg-file value="C:\Users\Doğukan\Sumo\TrafficSim\sim\traffic.sumocfg"/>
        <additional-files value=""/>
        <route-files value="C:\Users\Doğukan\Sumo\TrafficSim\sim\traffic.rou.xml"/>
        <sumo-net-file value="C:\Users\Doğukan\Sumo\TrafficSim\sim\traffic.net.xml"/>
    </input>

    <output>
        <output-file value="C:\Users\Doğukan\Sumo\TrafficSim\sim\traffic.net.xml"/>
    </output>

    <processing>
        <geometry.min-radius.fix.railways value="false"/>
        <geometry.max-grade.fix value="false"/>
        <offset.disable-normalization value="true"/>
        <lefthand value="0"/>
    </processing>

    <junctions>
        <no-internal-links value="false"/>
        <no-turnarounds value="true"/>
        <junctions.corner-detail value="5"/>
        <junctions.limit-turn-speed value="5.50"/>
        <rectangular-lane-cut value="0"/>
    </junctions>

    <pedestrian>
        <walkingareas value="0"/>
    </pedestrian>

</configuration>
-->

<net version="1.16" junctionCornerDetail="5" limitTurnSpeed="5.50" xmlns:xsi="http://www.w3.org/2001/XMLSchema-instance" xsi:noNamespaceSchemaLocation="http://sumo.dlr.de/xsd/net_file.xsd">

    <location netOffset="0.00,0.00" convBoundary="-50.00,-50.00,100.00,50.00" origBoundary="-10000000000.00,-10000000000.00,10000000000.00,10000000000.00" projParameter="!"/>

    <edge id=":1_w0" function="walkingarea">
        <lane id=":1_w0_0" index="0" allow="pedestrian" speed="2.78" length="21.20" width="2.00" shape="-50.00,-9.60 -50.00,-11.60 -50.00,11.60 -50.00,9.60"/>
    </edge>
    <edge id=":2_w0" function="walkingarea">
        <lane id=":2_w0_0" index="0" allow="pedestrian" speed="2.78" length="21.20" width="2.00" shape="-9.60,50.00 -11.60,50.00 11.60,50.00 9.60,50.00"/>
    </edge>
    <edge id=":3_w0" function="walkingarea">
        <lane id=":3_w0_0" index="0" allow="pedestrian" speed="2.78" length="21.20" width="2.00" shape="9.60,-50.00 11.60,-50.00 -11.60,-50.00 -9.60,-50.00"/>
    </edge>
    <edge id=":4_w0" function="walkingarea">
        <lane id=":4_w0_0" index="0" allow="pedestrian" speed="2.78" length="14.80" width="2.00" shape="56.40,-50.00 58.40,-50.00 41.60,-50.00 43.60,-50.00"/>
    </edge>
    <edge id=":5_w0" function="walkingarea">
        <lane id=":5_w0_0" index="0" allow="pedestrian" speed="2.78" length="21.20" width="2.00" shape="100.00,9.60 100.00,11.60 100.00,-11.60 100.00,-9.60"/>
    </edge>
    <edge id=":K1_0" function="internal">
        <lane id=":K1_0_0" index="0" allow="private emergency authority vip passenger hov taxi bus coach delivery truck trailer motorcycle moped evehicle custom1 custom2" speed="7.78" length="10.34" shape="-8.00,14.49 -8.42,10.25 -9.70,7.22 -11.82,5.41"/>
    </edge>
    <edge id=":K1_1" function="internal">
        <lane id=":K1_1_0" index="0" allow="private emergency authority vip passenger hov taxi bus coach delivery truck trailer motorcycle moped evehicle custom1 custom2" speed="13.89" length="28.95" shape="-8.00,14.49 -8.00,-14.45"/>
        <lane id=":K1_1_1" index="1" allow="private emergency authority vip passenger hov taxi bus coach delivery truck trailer motorcycle moped evehicle custom1 custom2" speed="13.89" length="28.95" shape="-4.80,14.50 -4.80,-14.45"/>
        <lane id=":K1_1_2" index="2" allow="private emergency authority vip passenger hov taxi bus coach delivery truck trailer motorcycle moped evehicle custom1 custom2" speed="13.89" length="28.95" shape="-1.60,14.51 -1.60,-14.45"/>
    </edge>
    <edge id=":K1_4" function="internal">
        <lane id=":K1_4_0" index="0" allow="private emergency authority vip passenger hov taxi bus coach delivery truck trailer motorcycle moped evehicle custom1 custom2" speed="10.73" length="23.31" shape="-1.60,14.51 -0.57,7.46 2.54,2.43 7.71,-0.59 11.95,-1.18"/>
    </edge>
    <edge id=":K1_20" function="internal">
        <lane id=":K1_20_0" index="0" allow="private emergency authority vip passenger hov taxi bus coach delivery truck trailer motorcycle moped evehicle custom1 custom2" speed="7.78" length="3.03" shape="-11.82,5.41 -14.79,4.80"/>
    </edge>
    <edge id=":K1_21" function="internal">
        <lane id=":K1_21_0" index="0" allow="private emergency authority vip passenger hov taxi bus coach delivery truck trailer motorcycle moped evehicle custom1 custom2" speed="10.73" length="3.03" shape="11.95,-1.18 14.95,-1.60"/>
    </edge>
    <edge id=":K1_5" function="internal">
        <lane id=":K1_5_0" index="0" allow="private emergency authority vip passenger hov taxi bus coach delivery truck trailer motorcycle moped evehicle custom1 custom2" speed="7.83" length="10.42" shape="14.90,8.00 10.48,8.41 7.32,9.64 5.56,11.54"/>
    </edge>
    <edge id=":K1_6" function="internal">
        <lane id=":K1_6_0" index="0" allow="private emergency authority vip passenger hov taxi bus coach delivery truck trailer motorcycle moped evehicle custom1 custom2" speed="13.89" length="29.71" shape="14.90,8.00 -14.83,8.00"/>
        <lane id=":K1_6_1" index="1" allow="private emergency authority vip passenger hov taxi bus coach delivery truck trailer motorcycle moped evehicle custom1 custom2" speed="13.89" length="29.71" shape="14.92,4.80 -14.79,4.80"/>
        <lane id=":K1_6_2" index="2" allow="private emergency authority vip passenger hov taxi bus coach delivery truck trailer motorcycle moped evehicle custom1 custom2" speed="13.89" length="29.71" shape="14.94,1.60 -14.75,1.60"/>
    </edge>
    <edge id=":K1_9" function="internal">
        <lane id=":K1_9_0" index="0" allow="private emergency authority vip passenger hov taxi bus coach delivery truck trailer motorcycle moped evehicle custom1 custom2" speed="10.72" length="23.25" shape="14.94,1.60 7.70,0.60 2.53,-2.41 -0.57,-7.43 -1.16,-11.45"/>
    </edge>
    <edge id=":K1_22" function="internal">
        <lane id=":K1_22_0" index="0" allow="private emergency authority vip passenger hov taxi bus coach delivery truck trailer motorcycle moped evehicle custom1 custom2" speed="7.83" length="3.12" shape="5.56,11.54 5.43,11.68 4.80,14.54"/>
    </edge>
    <edge id=":K1_23" function="internal">
        <lane id=":K1_23_0" index="0" allow="private emergency authority vip passenger hov taxi bus coach delivery truck trailer motorcycle moped evehicle custom1 custom2" speed="10.72" length="3.03" shape="-1.16,-11.45 -1.60,-14.45"/>
    </edge>
    <edge id=":K1_10" function="internal">
        <lane id=":K1_10_0" index="0" allow="private emergency authority vip passenger hov taxi bus coach delivery truck trailer motorcycle moped evehicle custom1 custom2" speed="7.81" length="10.36" shape="8.00,-14.45 8.44,-10.23 9.74,-7.21 11.92,-5.40"/>
    </edge>
    <edge id=":K1_11" function="internal">
        <lane id=":K1_11_0" index="0" allow="private emergency authority vip passenger hov taxi bus coach delivery truck trailer motorcycle moped evehicle custom1 custom2" speed="13.89" length="28.99" shape="8.00,-14.45 8.00,14.55"/>
        <lane id=":K1_11_1" index="1" allow="private emergency authority vip passenger hov taxi bus coach delivery truck trailer motorcycle moped evehicle custom1 custom2" speed="13.89" length="28.99" shape="4.80,-14.45 4.80,14.54"/>
        <lane id=":K1_11_2" index="2" allow="private emergency authority vip passenger hov taxi bus coach delivery truck trailer motorcycle moped evehicle custom1 custom2" speed="13.89" length="28.99" shape="1.60,-14.45 1.60,14.53"/>
    </edge>
    <edge id=":K1_14" function="internal">
        <lane id=":K1_14_0" index="0" allow="private emergency authority vip passenger hov taxi bus coach delivery truck trailer motorcycle moped evehicle custom1 custom2" speed="10.69" length="23.09" shape="1.60,-14.45 0.58,-7.43 -2.49,-2.41 -7.60,0.60 -11.74,1.18"/>
    </edge>
    <edge id=":K1_24" function="internal">
        <lane id=":K1_24_0" index="0" allow="private emergency authority vip passenger hov taxi bus coach delivery truck trailer motorcycle moped evehicle custom1 custom2" speed="7.81" length="3.11" shape="11.92,-5.40 14.97,-4.80"/>
    </edge>
    <edge id=":K1_25" function="internal">
        <lane id=":K1_25_0" index="0" allow="private emergency authority vip passenger hov taxi bus coach delivery truck trailer motorcycle moped evehicle custom1 custom2" speed="10.69" length="3.04" shape="-11.74,1.18 -14.75,1.60"/>
    </edge>
    <edge id=":K1_15" function="internal">
        <lane id=":K1_15_0" index="0" allow="private emergency authority vip passenger hov taxi bus coach delivery truck trailer motorcycle moped evehicle custom1 custom2" speed="7.75" length="10.10" shape="-14.62,-8.00 -10.32,-8.40 -7.26,-9.61 -5.58,-11.45"/>
    </edge>
    <edge id=":K1_16" function="internal">
        <lane id=":K1_16_0" index="0" allow="private emergency authority vip passenger hov taxi bus coach delivery truck trailer motorcycle moped evehicle custom1 custom2" speed="13.89" length="29.64" shape="-14.62,-8.00 14.99,-8.00"/>
        <lane id=":K1_16_1" index="1" allow="private emergency authority vip passenger hov taxi bus coach delivery truck trailer motorcycle moped evehicle custom1 custom2" speed="13.89" length="29.64" shape="-14.66,-4.80 14.97,-4.80"/>
        <lane id=":K1_16_2" index="2" allow="private emergency authority vip passenger hov taxi bus coach delivery truck trailer motorcycle moped evehicle custom1 custom2" speed="13.89" length="29.64" shape="-14.71,-1.60 14.95,-1.60"/>
    </edge>
    <edge id=":K1_19" function="internal">
        <lane id=":K1_19_0" index="0" allow="private emergency authority vip passenger hov taxi bus coach delivery truck trailer motorcycle moped evehicle custom1 custom2" speed="10.69" length="23.12" shape="-14.71,-1.60 -7.57,-0.59 -2.48,2.43 0.58,7.47 1.17,11.52"/>
    </edge>
    <edge id=":K1_26" function="internal">
        <lane id=":K1_26_0" index="0" allow="private emergency authority vip passenger hov taxi bus coach delivery truck trailer motorcycle moped evehicle custom1 custom2" speed="7.75" length="3.13" shape="-5.58,-11.45 -5.41,-11.63 -4.80,-14.45"/>
    </edge>
    <edge id=":K1_27" function="internal">
        <lane id=":K1_27_0" index="0" allow="private emergency authority vip passenger hov taxi bus coach delivery truck trailer motorcycle moped evehicle custom1 custom2" speed="10.69" length="3.03" shape="1.17,11.52 1.60,14.53"/>
    </edge>
    <edge id=":K1_c0" function="crossing" crossingEdges="Y3 Y4">
        <lane id=":K1_c0_0" index="0" allow="pedestrian" speed="2.78" length="19.20" width="3.00" shape="9.60,13.05 -9.60,12.99"/>
    </edge>
    <edge id=":K1_c1" function="crossing" crossingEdges="Y21 Y11">
        <lane id=":K1_c1_0" index="0" allow="pedestrian" speed="2.78" length="19.20" width="3.00" shape="13.49,-9.60 13.40,9.60"/>
    </edge>
    <edge id=":K1_c2" function="crossing" crossingEdges="Y41 Y31">
        <lane id=":K1_c2_0" index="0" allow="pedestrian" speed="2.78" length="19.20" width="3.00" shape="-9.60,-12.95 9.60,-12.95"/>
    </edge>
    <edge id=":K1_c3" function="crossing" crossingEdges="Y1 Y2">
        <lane id=":K1_c3_0" index="0" allow="pedestrian" speed="2.78" length="19.20" width="3.00" shape="-13.33,9.60 -13.12,-9.60"/>
    </edge>
    <edge id=":K1_w0" function="walkingarea">
        <lane id=":K1_w0_0" index="0" allow="pedestrian" speed="2.78" length="3.20" width="3.00" shape="-14.83,9.58 -9.77,9.60 -9.77,11.60 -11.60,9.33 -9.60,9.33 -9.61,14.49 -9.75,12.99 -10.18,11.77 -10.91,10.82 -11.93,10.14 -13.23,9.74"/>
    </edge>
    <edge id=":K1_w1" function="walkingarea">
        <lane id=":K1_w1_0" index="0" allow="pedestrian" speed="2.78" length="3.26" width="3.00" shape="9.59,14.55 9.60,9.57 11.60,9.57 9.50,11.60 9.50,9.60 14.90,9.61 13.28,9.74 11.96,10.15 10.92,10.84 10.19,11.80 9.75,13.04"/>
    </edge>
    <edge id=":K1_w2" function="walkingarea">
        <lane id=":K1_w2_0" index="0" allow="pedestrian" speed="2.78" length="3.28" width="3.00" shape="14.99,-9.59 9.42,-9.60 9.42,-11.60 11.60,-9.57 9.60,-9.57 9.60,-14.45 9.75,-12.97 10.20,-11.76 10.95,-10.81 12.00,-10.14 13.34,-9.73"/>
    </edge>
    <edge id=":K1_w3" function="walkingarea">
        <lane id=":K1_w3_0" index="0" allow="pedestrian" speed="2.78" length="3.09" width="3.00" shape="-9.60,-14.45 -9.60,-9.62 -11.60,-9.62 -9.45,-11.60 -9.45,-9.60 -14.62,-9.62 -13.09,-9.73 -11.83,-10.14 -10.86,-10.81 -10.16,-11.76 -9.74,-12.97"/>
    </edge>
    <edge id=":K2_0" function="internal">
        <lane id=":K2_0_0" index="0" allow="private emergency authority vip passenger hov taxi bus coach delivery truck trailer motorcycle moped evehicle custom1 custom2" speed="13.89" length="20.89" shape="60.39,8.00 39.56,8.00"/>
        <lane id=":K2_0_1" index="1" allow="private emergency authority vip passenger hov taxi bus coach delivery truck trailer motorcycle moped evehicle custom1 custom2" speed="13.89" length="20.89" shape="60.44,4.80 39.54,4.80"/>
        <lane id=":K2_0_2" index="2" allow="private emergency authority vip passenger hov taxi bus coach delivery truck trailer motorcycle moped evehicle custom1 custom2" speed="13.89" length="20.89" shape="60.48,1.60 39.52,1.60"/>
    </edge>
    <edge id=":K2_3" function="internal">
        <lane id=":K2_3_0" index="0" allow="private emergency authority vip passenger hov taxi bus coach delivery truck trailer motorcycle moped evehicle custom1 custom2" speed="9.55" length="4.50" shape="60.48,1.60 56.04,0.89"/>
    </edge>
    <edge id=":K2_12" function="internal">
        <lane id=":K2_12_0" index="0" allow="private emergency authority vip passenger hov taxi bus coach delivery truck trailer motorcycle moped evehicle custom1 custom2" speed="9.55" length="16.16" shape="56.04,0.89 55.20,0.75 51.42,-1.78 49.16,-6.01 48.40,-11.93"/>
    </edge>
    <edge id=":K2_4" function="internal">
        <lane id=":K2_4_0" index="0" allow="private emergency authority vip passenger hov taxi bus coach delivery truck trailer motorcycle moped evehicle custom1 custom2" speed="6.95" length="7.29" shape="54.80,-11.95 55.16,-8.82 56.24,-6.59 57.57,-5.60"/>
        <lane id=":K2_4_1" index="1" allow="private emergency authority vip passenger hov taxi bus coach delivery truck trailer motorcycle moped evehicle custom1 custom2" speed="7.73" length="9.88" shape="54.80,-11.95 55.16,-7.42 56.23,-4.19 57.54,-2.77"/>
    </edge>
    <edge id=":K2_6" function="internal">
        <lane id=":K2_6_0" index="0" allow="private emergency authority vip passenger hov taxi bus coach delivery truck trailer motorcycle moped evehicle custom1 custom2" speed="10.12" length="20.29" shape="51.60,-11.94 50.85,-4.62 48.59,0.61 44.82,3.75 42.54,4.21"/>
        <lane id=":K2_6_1" index="1" allow="private emergency authority vip passenger hov taxi bus coach delivery truck trailer motorcycle moped evehicle custom1 custom2" speed="9.55" length="17.64" shape="51.60,-11.94 50.85,-6.02 48.58,-1.79 44.81,0.75 42.52,1.12"/>
    </edge>
    <edge id=":K2_13" function="internal">
        <lane id=":K2_13_0" index="0" allow="private emergency authority vip passenger hov taxi bus coach delivery truck trailer motorcycle moped evehicle custom1 custom2" speed="6.95" length="3.16" shape="57.57,-5.60 58.05,-5.25 60.57,-4.80"/>
    </edge>
    <edge id=":K2_14" function="internal">
        <lane id=":K2_14_0" index="0" allow="private emergency authority vip passenger hov taxi bus coach delivery truck trailer motorcycle moped evehicle custom1 custom2" speed="7.73" length="3.30" shape="57.54,-2.77 58.02,-2.25 60.53,-1.60"/>
    </edge>
    <edge id=":K2_15" function="internal">
        <lane id=":K2_15_0" index="0" allow="private emergency authority vip passenger hov taxi bus coach delivery truck trailer motorcycle moped evehicle custom1 custom2" speed="10.12" length="3.05" shape="42.54,4.21 39.54,4.80"/>
    </edge>
    <edge id=":K2_16" function="internal">
        <lane id=":K2_16_0" index="0" allow="private emergency authority vip passenger hov taxi bus coach delivery truck trailer motorcycle moped evehicle custom1 custom2" speed="9.55" length="3.03" shape="42.52,1.12 39.52,1.60"/>
    </edge>
    <edge id=":K2_8" function="internal">
        <lane id=":K2_8_0" index="0" allow="private emergency authority vip passenger hov taxi bus coach delivery truck trailer motorcycle moped evehicle custom1 custom2" speed="7.02" length="6.57" shape="39.47,-8.00 43.38,-8.25 45.94,-8.92"/>
    </edge>
    <edge id=":K2_9" function="internal">
        <lane id=":K2_9_0" index="0" allow="private emergency authority vip passenger hov taxi bus coach delivery truck trailer motorcycle moped evehicle custom1 custom2" speed="13.89" length="21.09" shape="39.47,-8.00 60.62,-8.00"/>
        <lane id=":K2_9_1" index="1" allow="private emergency authority vip passenger hov taxi bus coach delivery truck trailer motorcycle moped evehicle custom1 custom2" speed="13.89" length="21.09" shape="39.49,-4.80 60.57,-4.80"/>
        <lane id=":K2_9_2" index="2" allow="private emergency authority vip passenger hov taxi bus coach delivery truck trailer motorcycle moped evehicle custom1 custom2" speed="13.89" length="21.09" shape="39.51,-1.60 60.53,-1.60"/>
    </edge>
    <edge id=":K2_17" function="internal">
        <lane id=":K2_17_0" index="0" allow="private emergency authority vip passenger hov taxi bus coach delivery truck trailer motorcycle moped evehicle custom1 custom2" speed="7.02" length="4.12" shape="45.94,-8.92 46.17,-8.98 47.84,-10.21 48.40,-11.93"/>
    </edge>
    <edge id=":K2_c0" function="crossing" crossingEdges="Y211 Y111">
        <lane id=":K2_c0_0" index="0" allow="pedestrian" speed="2.78" length="19.20" width="3.00" shape="59.12,-9.60 58.89,9.60"/>
    </edge>
    <edge id=":K2_c1" function="crossing" crossingEdges="Y6 Y5">
        <lane id=":K2_c1_0" index="0" allow="pedestrian" speed="2.78" length="12.80" width="3.00" shape="43.60,-10.42 56.40,-10.45"/>
    </edge>
    <edge id=":K2_c2" function="crossing" crossingEdges="Y11 Y21">
        <lane id=":K2_c2_0" index="0" allow="pedestrian" speed="2.78" length="19.20" width="3.00" shape="41.06,9.60 40.97,-9.60"/>
    </edge>
    <edge id=":K2_w0" function="walkingarea">
        <lane id=":K2_w0_0" index="0" allow="pedestrian" speed="2.78" length="10.74" width="3.00" shape="42.56,9.59 39.56,9.61 50.00,9.60 50.00,11.60 50.00,9.60 60.39,9.62 57.39,9.58"/>
    </edge>
    <edge id=":K2_w1" function="walkingarea">
        <lane id=":K2_w1_0" index="0" allow="pedestrian" speed="2.78" length="1.66" width="3.00" shape="60.62,-9.58 56.51,-9.60 56.51,-11.60 58.40,-9.77 56.40,-9.77 56.40,-11.95 56.52,-11.23 56.87,-10.65 57.45,-10.19 58.27,-9.86 59.33,-9.67"/>
    </edge>
    <edge id=":K2_w2" function="walkingarea">
        <lane id=":K2_w2_0" index="0" allow="pedestrian" speed="2.78" length="1.70" width="3.00" shape="43.60,-11.92 43.60,-9.57 41.60,-9.57 43.64,-11.60 43.64,-9.60 39.47,-9.59 40.73,-9.66 41.76,-9.86 42.57,-10.18 43.14,-10.63 43.49,-11.21"/>
    </edge>

    <edge id="Y1" from="K1" to="1" priority="-1">
        <lane id="Y1_0" index="0" allow="pedestrian" speed="13.89" length="36.46" width="2.00" shape="-9.77,10.60 -50.00,10.60"/>
        <lane id="Y1_1" index="1" allow="private emergency authority vip passenger hov taxi bus coach delivery truck trailer motorcycle moped evehicle custom1 custom2" speed="13.89" length="36.46" shape="-14.83,8.00 -50.00,8.00"/>
        <lane id="Y1_2" index="2" allow="private emergency authority vip passenger hov taxi bus coach delivery truck trailer motorcycle moped evehicle custom1 custom2" speed="13.89" length="36.46" shape="-14.79,4.80 -50.00,4.80"/>
        <lane id="Y1_3" index="3" allow="private emergency authority vip passenger hov taxi bus coach delivery truck trailer motorcycle moped evehicle custom1 custom2" speed="13.89" length="36.46" shape="-14.75,1.60 -50.00,1.60"/>
    </edge>
    <edge id="Y11" from="K2" to="K1" priority="-1">
        <lane id="Y11_0" index="0" allow="pedestrian" speed="13.89" length="28.59" width="2.00" shape="50.00,10.60 9.50,10.60"/>
        <lane id="Y11_1" index="1" allow="private emergency authority vip passenger hov taxi bus coach delivery truck trailer motorcycle moped evehicle custom1 custom2" speed="13.89" length="28.59" shape="39.56,8.00 14.90,8.00"/>
        <lane id="Y11_2" index="2" allow="private emergency authority vip passenger hov taxi bus coach delivery truck trailer motorcycle moped evehicle custom1 custom2" speed="13.89" length="28.59" shape="39.54,4.80 14.92,4.80"/>
        <lane id="Y11_3" index="3" allow="private emergency authority vip passenger hov taxi bus coach delivery truck trailer motorcycle moped evehicle custom1 custom2" speed="13.89" length="28.59" shape="39.52,1.60 14.94,1.60"/>
    </edge>
    <edge id="Y111" from="5" to="K2" priority="-1">
        <lane id="Y111_0" index="0" allow="pedestrian" speed="13.89" length="42.17" width="2.00" shape="100.00,10.60 50.00,10.60"/>
        <lane id="Y111_1" index="1" allow="private emergency authority vip passenger hov taxi bus coach delivery truck trailer motorcycle moped evehicle custom1 custom2" speed="13.89" length="42.17" shape="100.00,8.00 60.39,8.00"/>
        <lane id="Y111_2" index="2" allow="private emergency authority vip passenger hov taxi bus coach delivery truck trailer motorcycle moped evehicle custom1 custom2" speed="13.89" length="42.17" shape="100.00,4.80 60.44,4.80"/>
        <lane id="Y111_3" index="3" allow="private emergency authority vip passenger hov taxi bus coach delivery truck trailer motorcycle moped evehicle custom1 custom2" speed="13.89" length="42.17" shape="100.00,1.60 60.48,1.60"/>
    </edge>
    <edge id="Y2" from="1" to="K1" priority="-1">
        <lane id="Y2_0" index="0" allow="pedestrian" speed="13.89" length="36.64" width="2.00" shape="-50.00,-10.60 -9.45,-10.60"/>
        <lane id="Y2_1" index="1" allow="private emergency authority vip passenger hov taxi bus coach delivery truck trailer motorcycle moped evehicle custom1 custom2" speed="13.89" length="36.64" shape="-50.00,-8.00 -14.62,-8.00"/>
        <lane id="Y2_2" index="2" allow="private emergency authority vip passenger hov taxi bus coach delivery truck trailer motorcycle moped evehicle custom1 custom2" speed="13.89" length="36.64" shape="-50.00,-4.80 -14.66,-4.80"/>
        <lane id="Y2_3" index="3" allow="private emergency authority vip passenger hov taxi bus coach delivery truck trailer motorcycle moped evehicle custom1 custom2" speed="13.89" length="36.64" shape="-50.00,-1.60 -14.71,-1.60"/>
    </edge>
    <edge id="Y21" from="K1" to="K2" priority="-1">
        <lane id="Y21_0" index="0" allow="pedestrian" speed="13.89" length="26.94" width="2.00" shape="9.42,-10.60 43.64,-10.60"/>
        <lane id="Y21_1" index="1" allow="private emergency authority vip passenger hov taxi bus coach delivery truck trailer motorcycle moped evehicle custom1 custom2" speed="13.89" length="26.94" shape="14.99,-8.00 39.47,-8.00"/>
        <lane id="Y21_2" index="2" allow="private emergency authority vip passenger hov taxi bus coach delivery truck trailer motorcycle moped evehicle custom1 custom2" speed="13.89" length="26.94" shape="14.97,-4.80 39.49,-4.80"/>
        <lane id="Y21_3" index="3" allow="private emergency authority vip passenger hov taxi bus coach delivery truck trailer motorcycle moped evehicle custom1 custom2" speed="13.89" length="26.94" shape="14.95,-1.60 39.51,-1.60"/>
    </edge>
    <edge id="Y211" from="K2" to="5" priority="-1">
        <lane id="Y211_0" index="0" allow="pedestrian" speed="13.89" length="40.44" width="2.00" shape="56.51,-10.60 100.00,-10.60"/>
        <lane id="Y211_1" index="1" allow="private emergency authority vip passenger hov taxi bus coach delivery truck trailer motorcycle moped evehicle custom1 custom2" speed="13.89" length="40.44" shape="60.62,-8.00 100.00,-8.00"/>
        <lane id="Y211_2" index="2" allow="private emergency authority vip passenger hov taxi bus coach delivery truck trailer motorcycle moped evehicle custom1 custom2" speed="13.89" length="40.44" shape="60.57,-4.80 100.00,-4.80"/>
        <lane id="Y211_3" index="3" allow="private emergency authority vip passenger hov taxi bus coach delivery truck trailer motorcycle moped evehicle custom1 custom2" speed="13.89" length="40.44" shape="60.53,-1.60 100.00,-1.60"/>
    </edge>
    <edge id="Y3" from="K1" to="2" priority="-1">
        <lane id="Y3_0" index="0" allow="pedestrian" speed="13.89" length="36.70" width="2.00" shape="10.60,9.57 10.60,50.00"/>
        <lane id="Y3_1" index="1" allow="private emergency authority vip passenger hov taxi bus coach delivery truck trailer motorcycle moped evehicle custom1 custom2" speed="13.89" length="36.70" shape="8.00,14.55 8.00,50.00"/>
        <lane id="Y3_2" index="2" allow="private emergency authority vip passenger hov taxi bus coach delivery truck trailer motorcycle moped evehicle custom1 custom2" speed="13.89" length="36.70" shape="4.80,14.54 4.80,50.00"/>
        <lane id="Y3_3" index="3" allow="private emergency authority vip passenger hov taxi bus coach delivery truck trailer motorcycle moped evehicle custom1 custom2" speed="13.89" length="36.70" shape="1.60,14.53 1.60,50.00"/>
    </edge>
    <edge id="Y31" from="3" to="K1" priority="-1">
        <lane id="Y31_0" index="0" allow="pedestrian" speed="13.89" length="36.77" width="2.00" shape="10.60,-50.00 10.60,-9.57"/>
        <lane id="Y31_1" index="1" allow="private emergency authority vip passenger hov taxi bus coach delivery truck trailer motorcycle moped evehicle custom1 custom2" speed="13.89" length="36.77" shape="8.00,-50.00 8.00,-14.45"/>
        <lane id="Y31_2" index="2" allow="private emergency authority vip passenger hov taxi bus coach delivery truck trailer motorcycle moped evehicle custom1 custom2" speed="13.89" length="36.77" shape="4.80,-50.00 4.80,-14.45"/>
        <lane id="Y31_3" index="3" allow="private emergency authority vip passenger hov taxi bus coach delivery truck trailer motorcycle moped evehicle custom1 custom2" speed="13.89" length="36.77" shape="1.60,-50.00 1.60,-14.45"/>
    </edge>
    <edge id="Y4" from="2" to="K1" priority="-1">
        <lane id="Y4_0" index="0" allow="pedestrian" speed="13.89" length="36.79" width="2.00" shape="-10.60,50.00 -10.60,9.33"/>
        <lane id="Y4_1" index="1" allow="private emergency authority vip passenger hov taxi bus coach delivery truck trailer motorcycle moped evehicle custom1 custom2" speed="13.89" length="36.79" shape="-8.00,50.00 -8.00,14.49"/>
        <lane id="Y4_2" index="2" allow="private emergency authority vip passenger hov taxi bus coach delivery truck trailer motorcycle moped evehicle custom1 custom2" speed="13.89" length="36.79" shape="-4.80,50.00 -4.80,14.50"/>
        <lane id="Y4_3" index="3" allow="private emergency authority vip passenger hov taxi bus coach delivery truck trailer motorcycle moped evehicle custom1 custom2" speed="13.89" length="36.79" shape="-1.60,50.00 -1.60,14.51"/>
    </edge>
    <edge id="Y41" from="K1" to="3" priority="-1">
        <lane id="Y41_0" index="0" allow="pedestrian" speed="13.89" length="36.76" width="2.00" shape="-10.60,-9.62 -10.60,-50.00"/>
        <lane id="Y41_1" index="1" allow="private emergency authority vip passenger hov taxi bus coach delivery truck trailer motorcycle moped evehicle custom1 custom2" speed="13.89" length="36.76" shape="-8.00,-14.45 -8.00,-50.00"/>
        <lane id="Y41_2" index="2" allow="private emergency authority vip passenger hov taxi bus coach delivery truck trailer motorcycle moped evehicle custom1 custom2" speed="13.89" length="36.76" shape="-4.80,-14.45 -4.80,-50.00"/>
        <lane id="Y41_3" index="3" allow="private emergency authority vip passenger hov taxi bus coach delivery truck trailer motorcycle moped evehicle custom1 custom2" speed="13.89" length="36.76" shape="-1.60,-14.45 -1.60,-50.00"/>
    </edge>
    <edge id="Y5" from="4" to="K2" priority="-1">
        <lane id="Y5_0" index="0" allow="pedestrian" speed="13.89" length="38.78" width="2.00" shape="57.40,-50.00 57.40,-9.77"/>
        <lane id="Y5_1" index="1" allow="private emergency authority vip passenger hov taxi bus coach delivery truck trailer motorcycle moped evehicle custom1 custom2" speed="13.89" length="38.78" shape="54.80,-50.00 54.80,-11.95"/>
        <lane id="Y5_2" index="2" allow="private emergency authority vip passenger hov taxi bus coach delivery truck trailer motorcycle moped evehicle custom1 custom2" speed="13.89" length="38.78" shape="51.60,-50.00 51.60,-11.94"/>
    </edge>
    <edge id="Y6" from="K2" to="4" priority="-1">
        <lane id="Y6_0" index="0" allow="pedestrian" speed="13.89" length="38.86" width="2.00" shape="42.60,-9.57 42.60,-50.00"/>
        <lane id="Y6_1" index="1" allow="private emergency authority vip passenger hov taxi bus coach delivery truck trailer motorcycle moped evehicle custom1 custom2" speed="13.89" length="38.86" shape="45.20,-11.92 45.20,-50.00"/>
        <lane id="Y6_2" index="2" allow="private emergency authority vip passenger hov taxi bus coach delivery truck trailer motorcycle moped evehicle custom1 custom2" speed="13.89" length="38.86" shape="48.40,-11.93 48.40,-50.00"/>
    </edge>

    <tlLogic id="K1" type="static" programID="0" offset="0">
        <phase duration="10" state="GGGGGrrrrrrrrrrrrrrrrrrr"/>
        <phase duration="3"  state="yyyyyyyyyyrrrrrrrrrrrrrr"/>
        <phase duration="10" state="rrrrrGGGGGrrrrrrrrrrrrrr"/>
        <phase duration="3"  state="rrrrryyyyyyyyyyrrrrrrrrr"/>
        <phase duration="10" state="rrrrrrrrrrGGGGGrrrrrrrrr"/>
        <phase duration="3"  state="rrrrrrrrrryyyyyyyyyyrrrr"/>
        <phase duration="10" state="rrrrrrrrrrrrrrrGGGGGrrrr"/>
        <phase duration="3"  state="rrrrrrrrrrrrrrryyyyyrrrr"/>