<?xml version="1.0" encoding="UTF-8"?>

<!-- generated on 2024-01-20 22:21:27 by Eclipse SUMO netedit Version 1.18.0
<configuration xmlns:xsi="http://www.w3.org/2001/XMLSchema-instance" xsi:noNamespaceSchemaLocation="http://sumo.dlr.de/xsd/neteditConfiguration.xsd">

    <input>
        <sumocfg-file value="C:\Users\Doğukan\Sumo\TrafficSim\sim\traffic.sumocfg"/>
        <additional-files value=""/>
        <route-files value="C:\Users\Doğukan\Sumo\TrafficSim\sim\traffic.rou.xml"/>
        <sumo-net-file value="C:\Users\Doğukan\Sumo\TrafficSim\sim\traffic.net.xml"/>
    </input>

    <processing>
        <geometry.min-radius.fix.railways value="false"/>
        <geometry.max-grade.fix value="false"/>
        <offset.disable-normalization value="true"/>
        <lefthand value="0"/>
    </processing>

    <junctions>
        <no-internal-links value="false"/>
        <no-turnarounds value="true"/>
        <junctions.corner-detail value="5"/>
        <junctions.limit-turn-speed value="5.50"/>
        <rectangular-lane-cut value="0"/>
    </junctions>

    <pedestrian>
        <walkingareas value="0"/>
    </pedestrian>

</configuration>
-->

<additional xmlns:xsi="http://www.w3.org/2001/XMLSchema-instance" xsi:noNamespaceSchemaLocation="http://sumo.dlr.de/xsd/additional_file.xsd">
    <tlLogic id="K1" type="static" programID="0" offset="0">
        <phase duration="60" state="GGGGGrrrrrrrrrrrrrrrrrrr"/>
        <phase duration="3" state="yyyyyyyyyyrrrrrrrrrrrrrr"/>
        <phase duration="60" state="rrrrrGGGGGrrrrrrrrrrrrrr"/>
        <phase duration="3" state="rrrrryyyyyyyyyyrrrrrrrrr"/>
        <phase duration="60" state="rrrrrrrrrrGGGGGrrrrrrrrr"/>
        <phase duration="3" state="rrrrrrrrrryyyyyyyyyyrrrr"/>
        <phase duration="60" state="rrrrrrrrrrrrrrrGGGGGrrrr"/>
        <phase duration="3" state="rrrrrrrrrrrrrrryyyyyrrrr"/>
        <phase duration="5" state="rrrrrrrrrrrrrrrrrrrrGGGG"/>
    </tlLogic>
</additional>
