<?xml version="1.0" encoding="UTF-8"?>

<!-- generated on 2024-01-21 12:39:50 by Eclipse SUMO sumo Version 1.18.0
-->

<configuration xmlns:xsi="http://www.w3.org/2001/XMLSchema-instance" xsi:noNamespaceSchemaLocation="http://sumo.dlr.de/xsd/sumoConfiguration.xsd">

    <input>
        <net-file value="traffic.net.xml"/>
        <route-files value="traffic.rou.xml"/>
    </input>

</configuration>
